wipe
puts "System"
model basic -ndm 3 -ndf 6
puts "restraint"
node 1 0.000E+000 0.000E+000 1.050E+004
node 2 0.000E+000 0.000E+000 1.350E+004
node 3 0.000E+000 5.000E+003 1.050E+004
node 4 0.000E+000 5.000E+003 1.350E+004
node 5 6.000E+003 0.000E+000 1.050E+004
node 6 6.000E+003 0.000E+000 1.350E+004
node 7 6.000E+003 5.000E+003 1.050E+004
node 8 6.000E+003 5.000E+003 1.350E+004
node 9 1.200E+004 0.000E+000 1.050E+004
node 10 1.200E+004 0.000E+000 1.350E+004
node 11 1.200E+004 5.000E+003 1.050E+004
node 12 1.200E+004 5.000E+003 1.350E+004
node 13 0.000E+000 0.000E+000 7.500E+003
node 14 0.000E+000 5.000E+003 7.500E+003
node 15 6.000E+003 0.000E+000 7.500E+003
node 16 6.000E+003 5.000E+003 7.500E+003
node 17 1.200E+004 0.000E+000 7.500E+003
node 18 1.200E+004 5.000E+003 7.500E+003
node 19 0.000E+000 0.000E+000 4.500E+003
node 20 0.000E+000 5.000E+003 4.500E+003
# ... 18 like lines cut
puts "rigidDiaphragm"
rigidDiaphragm 3 35 2
rigidDiaphragm 3 35 4
rigidDiaphragm 3 35 6
rigidDiaphragm 3 35 8
rigidDiaphragm 3 35 10
rigidDiaphragm 3 35 12
rigidDiaphragm 3 35 31
rigidDiaphragm 3 36 1
rigidDiaphragm 3 36 3
rigidDiaphragm 3 36 5
rigidDiaphragm 3 36 7
rigidDiaphragm 3 36 9
rigidDiaphragm 3 36 11
rigidDiaphragm 3 36 32
rigidDiaphragm 3 37 13
rigidDiaphragm 3 37 14
rigidDiaphragm 3 37 15
rigidDiaphragm 3 37 16
rigidDiaphragm 3 37 17
rigidDiaphragm 3 37 18
# ... 8 like lines cut
puts "node"
fix 31 0 0 1 1 1 0
fix 32 0 0 1 1 1 0
fix 33 0 0 1 1 1 0
fix 34 0 0 1 1 1 0
fix 35 0 0 1 1 1 0
fix 36 0 0 1 1 1 0
fix 37 0 0 1 1 1 0
fix 38 0 0 1 1 1 0
fix 25 1 1 1 1 1 1;
fix 26 1 1 1 1 1 1;
fix 27 1 1 1 1 1 1;
fix 28 1 1 1 1 1 1;
fix 29 1 1 1 1 1 1;
fix 30 1 1 1 1 1 1;
puts "material"
uniaxialMaterial Elastic 1 1.999E+005
uniaxialMaterial Elastic 2 3.250E+004
uniaxialMaterial Elastic 3 1.999E+005
puts "transformation"
geomTransf Linear 1 1.000 0.000 0.000 
geomTransf Linear 2 1.000 0.000 0.000 
geomTransf Linear 3 1.000 0.000 0.000 
geomTransf Linear 4 1.000 0.000 0.000 
geomTransf Linear 5 1.000 0.000 0.000 
geomTransf Linear 6 1.000 0.000 0.000 
geomTransf Linear 7 0.000 0.000 1.000 
geomTransf Linear 8 0.000 0.000 1.000 
geomTransf Linear 9 0.000 0.000 1.000 
geomTransf Linear 10 0.000 0.000 1.000 
geomTransf Linear 11 0.000 0.000 1.000 
geomTransf Linear 12 0.000 0.000 1.000 
geomTransf Linear 13 0.000 0.000 1.000 
geomTransf Linear 14 1.000 0.000 0.000 
geomTransf Linear 15 1.000 0.000 0.000 
geomTransf Linear 16 1.000 0.000 0.000 
geomTransf Linear 17 1.000 0.000 0.000 
geomTransf Linear 18 1.000 0.000 0.000 
geomTransf Linear 19 1.000 0.000 0.000 
geomTransf Linear 20 0.000 0.000 1.000 
# ... 32 like lines cut
puts "element"
element elasticBeamColumn 1 1 2 1.600E+005 3.250E+004 1.354E+004 3.605E+009 2.133E+009 2.133E+009 1
element elasticBeamColumn 2 3 4 1.600E+005 3.250E+004 1.354E+004 3.605E+009 2.133E+009 2.133E+009 2
element elasticBeamColumn 3 5 6 1.600E+005 3.250E+004 1.354E+004 3.605E+009 2.133E+009 2.133E+009 3
element elasticBeamColumn 4 7 8 1.600E+005 3.250E+004 1.354E+004 3.605E+009 2.133E+009 2.133E+009 4
element elasticBeamColumn 5 9 10 1.600E+005 3.250E+004 1.354E+004 3.605E+009 2.133E+009 2.133E+009 5
element elasticBeamColumn 6 11 12 1.600E+005 3.250E+004 1.354E+004 3.605E+009 2.133E+009 2.133E+009 6
element elasticBeamColumn 7 2 6 2.400E+005 3.250E+004 1.354E+004 7.512E+009 7.200E+009 3.200E+009 7
element elasticBeamColumn 8 6 10 2.400E+005 3.250E+004 1.354E+004 7.512E+009 7.200E+009 3.200E+009 8
element elasticBeamColumn 9 4 8 2.400E+005 3.250E+004 1.354E+004 7.512E+009 7.200E+009 3.200E+009 9
element elasticBeamColumn 10 8 12 2.400E+005 3.250E+004 1.354E+004 7.512E+009 7.200E+009 3.200E+009 10
element elasticBeamColumn 11 2 4 1.200E+005 3.250E+004 1.354E+004 1.264E+009 3.600E+009 4.000E+008 11
element elasticBeamColumn 12 6 8 1.200E+005 3.250E+004 1.354E+004 1.264E+009 3.600E+009 4.000E+008 12
element elasticBeamColumn 13 10 12 1.200E+005 3.250E+004 1.354E+004 1.264E+009 3.600E+009 4.000E+008 13
element elasticBeamColumn 14 13 1 1.600E+005 3.250E+004 1.354E+004 3.605E+009 2.133E+009 2.133E+009 14
element elasticBeamColumn 15 14 3 1.600E+005 3.250E+004 1.354E+004 3.605E+009 2.133E+009 2.133E+009 15
element elasticBeamColumn 16 15 5 1.600E+005 3.250E+004 1.354E+004 3.605E+009 2.133E+009 2.133E+009 16
element elasticBeamColumn 17 16 7 1.600E+005 3.250E+004 1.354E+004 3.605E+009 2.133E+009 2.133E+009 17
element elasticBeamColumn 18 17 9 1.600E+005 3.250E+004 1.354E+004 3.605E+009 2.133E+009 2.133E+009 18
element elasticBeamColumn 19 18 11 1.600E+005 3.250E+004 1.354E+004 3.605E+009 2.133E+009 2.133E+009 19
element elasticBeamColumn 20 1 5 2.400E+005 3.250E+004 1.354E+004 7.512E+009 7.200E+009 3.200E+009 20
# ... 32 like lines cut
puts "recorder"
recorder Node -file node0.out -time -nodeRange 1 38 -dof 1 2 3 disp
recorder Element -file ele0.out -time -eleRange 1 52 localForce
recorder Node -file story_disp.out -time -nodeRange 35 38 -dof 2 disp
puts "loading"
## Load Case = WINDY
pattern Plain 3 Linear {
load 31 1.197E-012 1.955E+004 0.000E+000 0.000E+000 0.000E+000 0.000E+000
load 32 2.237E-012 3.653E+004 0.000E+000 0.000E+000 0.000E+000 0.000E+000
load 33 1.991E-012 3.252E+004 0.000E+000 0.000E+000 0.000E+000 0.000E+000
load 34 2.107E-012 3.442E+004 0.000E+000 0.000E+000 0.000E+000 0.000E+000
}
puts "analysis"
constraints Lagrange
numberer Plain
system BandGeneral
test EnergyIncr 1.0e-6 200
algorithm Newton
integrator LoadControl 1.000E-002
analysis Static
analyze 100
